    58
 Generated by Multiwfn
C      -1.14649676      0.66878980      0.00000000
N      -2.10713076     -0.16370520      0.69131100
C      -3.34260876      0.42971180      1.15512800
C      -1.85308476     -1.46372920      0.90534500
C      -0.66943276     -2.07014920      0.43152700
C      -0.41333776     -3.38738420      0.66687800
C      -2.75799376     -2.28356020      1.61400300
C      -2.49902076     -3.60638020      1.81174400
C      -1.31638976     -4.21379520      1.35683900
C      -1.04634876     -5.60078720      1.58457500
C      -2.12407476     -6.54156420      1.62089900
C      -2.08494676     -7.68190520      2.44112800
C      -3.11351676     -8.57372520      2.49371100
C      -4.26340176     -8.40539620      1.69187600
N      -5.27520976     -9.28591320      1.72590300
C      -6.45300476     -9.08356620      0.90994500
C      -5.19966576    -10.45968220      2.56875500
C      -4.30316076     -7.27081320      0.85257300
C      -3.27838176     -6.37341220      0.83730900
C       0.30008024     -6.04558920      1.77563800
C       1.26626924     -5.23427120      2.39468300
C       2.54642624     -5.65451620      2.59528600
C       2.97107624     -6.92731020      2.15585900
N       4.23343824     -7.34422020      2.33633700
C       5.21032224     -6.48013020      2.96315700
C       4.64012524     -8.66418020      1.90499200
C       2.01048424     -7.74248320      1.51841400
C       0.72696924     -7.31650420      1.35428600
H      -0.18859476      0.67209180      0.50751200
H      -1.51485076      1.68065580     -0.02727200
H      -0.99239176      0.33688180     -1.02108500
H      -3.41673276      0.40435580      2.23706900
H      -4.20516376     -0.07927220      0.74059000
H      -3.37742276      1.45897480      0.83942000
H       0.03798024     -1.49990720     -0.13392600
H       0.48601324     -3.81401420      0.26716300
H      -3.65739876     -1.86778620      2.01847000
H      -3.20168776     -4.18723620      2.37693800
H      -1.24107376     -7.83460820      3.08540200
H      -3.04267976     -9.40382920      3.16553400
H      -6.93649976     -8.14100720      1.14006700
H      -6.21255976     -9.09634420     -0.14768800
H      -7.15506176     -9.87696520      1.10454600
H      -6.09388376    -11.04521420      2.43569700
H      -4.34827576    -11.07920520      2.31023600
H      -5.12366176    -10.19267820      3.61708200
H      -5.13990576     -7.10936020      0.20519300
H      -3.33851476     -5.53844120      0.16668800
H       0.97932724     -4.27027820      2.76732400
H       3.22802124     -5.00656720      3.10606700
H       4.93188524     -6.23773420      3.98299200
H       6.16154424     -6.98495920      2.98563700
H       5.33201724     -5.55469120      2.41177200
H       4.05008424     -9.43644820      2.38518800
H       4.54630424     -8.77916420      0.83059200
H       5.67278124     -8.81712120      2.17045100
H       2.28631524     -8.70598320      1.14288200
H       0.03602024     -7.95738720      0.84211400
